models/240bus_psse/240busWECC_2018_PSS_PQLoad_fixedshunt_rm0load_2600_2619G_mod.raw
0,   100.00,  32, 0, 1, 60.00     / PSS(R)E 32 RAW created by rawd32  FRI, MAR 22 2024   8:55
THIS IS A REDUCED WECC 240-BUS POWER SYSTEM MODEL REFLECTING
REFERENCE: H. YUAN, R. S. BISWAS, J. TAN AND Y. ZHANG, "DEVE
  1001,'FOURCORN    ', 500.0000,1,   1,   3,   1,1.03401,   5.5786
  1002,'FOURCORN    ', 345.0000,1,   1,   3,   1,1.01400,   8.3686
  1003,'FOURCORN    ', 230.0000,1,   1,  10,   1,0.97318,  -0.2919
  1004,'SAN JUAN    ', 345.0000,1,   1,  10,   1,1.03000,  18.8076
  1032,'FCNGN4CC    ',  20.0000,2,   1,  10,   1,1.01390,   8.9504
  1034,'SJUAN G4    ',  20.0000,2,   1,  10,   1,1.03341,  20.4254
  1101,'CORONADO    ', 500.0000,1,   1,   3,   1,1.01000, -13.5877
  1102,'CHOLLA      ', 345.0000,1,   1,   3,   1,0.99465,  -4.7873
  1131,'CORONADO    ',  20.0000,2,   1,   3,   1,1.00946, -12.8588
  1201,'MOENKOPI    ', 500.0000,1,   1,   3,   1,1.09136,  -6.6183
  1202,'NAVAJO      ', 500.0000,1,   1,   3,   1,1.08000,  -3.8672
  1232,'NAVAJO 2    ',  20.0000,2,   1,   3,   1,1.07989,  -3.0357
  1301,'MEAD        ', 500.0000,1,   1,   3,   1,1.04500,  -9.8666
  1302,'H ALLEN     ', 500.0000,1,   1,   9,   1,1.02442, -11.6849
  1303,'H ALLEN     ', 345.0000,1,   1,   9,   1,1.00500, -15.2256
  1331,'HOOVER      ',  20.0000,2,   1,   3,   1,1.04505,  -8.7860
  1333,'H ALLEN     ',  20.0000,2,   1,   9,   1,1.00792, -13.7701
  1401,'PALOVRDE    ', 500.0000,1,   1,   3,   1,1.03500, -14.7821
  1402,'WESTWING    ', 500.0000,1,   1,   3,   1,1.05895, -20.3570
  1403,'PARKER      ', 230.0000,1,   1,   3,   1,1.03527, -14.4058
  1431,'PALOVRD2    ',  20.0000,2,   1,   3,   1,1.04004, -12.4297
  2000,'MEXICO      ', 230.0000,1,   4,   7,   1,1.00000, -16.7751
  2030,'MEXICO      ',  20.0000,2,   4,   7,   1,1.00135, -16.0719
  2100,'IMPERIAL    ', 230.0000,1,   2,   2,   1,1.03500, -12.4529
  2130,'IMPERIAL    ',  20.0000,2,   2,   2,   1,1.03554, -12.0976
  2201,'MIGUEL      ', 500.0000,1,   2,   2,   1,0.99375, -26.5149
  2202,'MIGUEL      ', 230.0000,1,   2,   2,   1,0.99067, -27.7039
  2203,'MISSION     ', 230.0000,1,   2,   2,   1,1.00500, -27.9283
  2233,'MISSION     ',  20.0000,2,   2,   2,   1,1.00686, -27.6472
  2301,'IMPRLVLY    ', 500.0000,1,   2,   2,   1,1.03560, -14.9785
  2302,'IMPRLVLY    ', 230.0000,1,   2,   2,   1,1.03500, -13.8863
  2332,'IMPRLVLY    ',  20.0000,2,   2,   2,   1,1.03519, -13.6516
  2400,'DEVERS      ', 500.0000,1,   2,   2,   1,1.02955, -19.7848
  2401,'LUGO        ', 500.0000,1,   2,   2,   1,1.05004, -13.6952
  2402,'MIRALOMA    ', 500.0000,1,   2,   2,   1,1.03176, -18.0031
  2403,'VALLEY      ', 500.0000,1,   2,   2,   1,1.02710, -22.3924
  2404,'VINCENT     ', 500.0000,1,   2,   2,   1,1.03915,  -9.9291
  2405,'SYLMAR S    ', 230.0000,1,   2,   2,   1,1.01146, -11.0445
  2406,'EAGLROCK    ', 230.0000,1,   2,   2,   1,1.00777, -14.9651
  2407,'LITEHIPE    ', 230.0000,1,   2,   2,   1,0.97490, -20.8949
  2408,'MESA CAL    ', 230.0000,1,   2,   2,   1,1.00900,  -9.1769
  2409,'MIRALOMA    ', 230.0000,1,   2,   2,   1,1.02000, -18.7770
  2410,'PARDEE      ', 230.0000,1,   2,   2,   1,1.00710, -14.6945
  2411,'VINCENT     ', 230.0000,1,   2,   2,   1,1.02033, -11.4155
  2431,'LUGO        ',  20.0000,2,   2,   2,   1,1.05000, -13.6692
  2434,'VINCENT     ',  20.0000,2,   2,   2,   1,1.02000, -11.3879
  2438,'MESA CAL    ',  20.0000,2,   2,   2,   1,1.00981,  -7.7529
  2439,'MIRALOMA    ',  20.0000,2,   2,   2,   1,1.01976, -18.7219
  2501,'SERRANO     ', 500.0000,1,   2,   2,   1,1.02695, -20.2704
  2502,'SERRANO     ', 230.0000,1,   2,   2,   1,1.02321, -21.6052
  2503,'S.ONOFRE    ', 230.0000,1,   2,   2,   1,1.00900, -23.5700
  2533,'S.ONOFRE    ',  20.0000,2,   2,   2,   1,1.00959, -23.0360
  2600,'ADELANTO    ', 500.0000,2,   2,   2,   1,1.05578,  -9.3694
  2601,'RINALDI     ', 500.0000,1,   2,   2,   1,1.04794,  -9.8178
  2602,'STA E       ', 500.0000,1,   2,   2,   1,1.02251,  -9.4349
  2603,'VICTORVL    ', 500.0000,1,   2,   2,   1,1.05657, -10.0289
  2604,'INTERMT     ', 345.0000,1,   2,   2,   1,1.03000,  -3.3390
  2605,'STA B1      ', 287.0000,1,   2,   2,   1,1.02096,  -7.2425
  2606,'STA B2      ', 287.0000,1,   2,   2,   1,1.02096,  -7.2425
  2607,'VICTORVL    ', 287.0000,1,   2,   2,   1,1.04733,  -9.0980
  2608,'CASTAIC     ', 230.0000,1,   2,   2,   1,1.01500,  -9.4368
  2609,'GLENDAL     ', 230.0000,1,   2,   2,   1,0.99971,  -7.7200
  2610,'HAYNES      ', 230.0000,1,   2,   2,   1,1.00400,   6.4590
  2611,'OLIVE       ', 230.0000,1,   2,   2,   1,1.01500,  -9.6300
  2612,'RINALDI     ', 230.0000,1,   2,   2,   1,1.01357,  -9.9960
  2613,'RIVER       ', 230.0000,1,   2,   2,   1,0.99477,  -4.2230
  2614,'STA BLD     ', 230.0000,1,   2,   2,   1,1.00215,  -5.8004
  2615,'STA E       ', 230.0000,1,   2,   2,   1,1.00539,  -9.1472
  2616,'STA F       ', 230.0000,1,   2,   2,   1,0.99670,  -4.5570
  2617,'STA G       ', 230.0000,1,   2,   2,   1,0.99769,  -6.2865
  2618,'STA J       ', 230.0000,1,   2,   2,   1,1.01112, -10.9935
  2619,'SYLMARLA    ', 230.0000,2,   2,   2,   1,1.01253,  -9.6917
  2620,'VALLEY      ', 230.0000,1,   2,   2,   1,1.00929, -10.0535
  2621,'STA B       ', 138.0000,1,   2,   2,   1,1.01278,  -6.9050
  2630,'HAYNES3G    ',  20.0000,2,   2,   2,   1,1.00486,   7.1070
  2631,'OLIVE       ',  20.0000,2,   2,   2,   1,1.01516,  -9.5655
  2634,'INTERM1G    ',  20.0000,2,   2,   2,   1,1.02988,  -2.9239
  2637,'OWENS G     ',  20.0000,2,   2,   2,   1,1.01377,  -9.9728
  2638,'CASTAI4G    ',  20.0000,2,   2,   2,   1,1.01504,  -9.3812
  2901,'ELDORADO    ', 500.0000,1,   2,   2,   1,1.10741,  -9.9997
  2902,'MOHAVE      ', 500.0000,1,   2,   2,   1,1.11743, -11.1978
  3101,'EMBRCDRD    ', 230.0000,1,   2,   2,   1,0.98132,  -7.7766
  3102,'MARTIN      ', 230.0000,1,   2,   2,   1,0.98603,  -6.6335
  3103,'SANMATEO    ', 230.0000,1,   2,   2,   1,0.99272,  -4.5012
  3104,'MARTIN      ', 115.0000,1,   2,   2,   1,0.98581, -11.4950
  3105,'POTRERO     ', 115.0000,1,   2,   2,   1,1.00000, -11.5056
  3133,'SANMATEO    ',  20.0000,2,   2,   2,   1,0.99266,  -4.4921
  3135,'POTRERO     ',  20.0000,2,   2,   2,   1,1.00043, -11.4426
  3201,'C.COSTA     ', 230.0000,1,   2,   2,   1,1.00361,  -4.5743
  3202,'MORAGA      ', 230.0000,1,   2,   2,   1,1.00231,  -4.1295
  3203,'NEWARK      ', 230.0000,1,   2,   2,   1,1.00055,  -4.2221
  3204,'PITSBURG    ', 230.0000,1,   2,   2,   1,1.01000,   0.1459
  3205,'SOBRANTE    ', 230.0000,1,   2,   2,   1,1.00081,  -2.5202
  3234,'PITSBURG    ',  20.0000,2,   2,   2,   1,1.01207,   1.2653
  3301,'METCALF     ', 500.0000,1,   2,   2,   1,1.01131,  -4.7303
  3302,'JEFFERSN    ', 230.0000,1,   2,   2,   1,0.98430,  -7.6693
  3303,'METCALF     ', 230.0000,1,   2,   2,   1,1.00000,  -5.4781
  3304,'MONTAVIS    ', 230.0000,1,   2,   2,   1,0.98986,  -7.0451
  3305,'RAVENSWD    ', 230.0000,1,   2,   2,   1,0.99494,  -4.7831
  3333,'METCALF     ',  20.0000,2,   2,   2,   1,1.00081,  -5.2459
  3401,'GREGG       ', 230.0000,1,   2,   2,   1,0.96667, -13.8506
  3402,'HELMS PP    ', 230.0000,1,   2,   2,   1,0.96880, -13.8643
  3403,'MC CALL     ', 230.0000,1,   2,   2,   1,1.00000,  -1.5414
  3404,'PANOCHE     ', 230.0000,1,   2,   2,   1,0.98837,  -8.6626
  3405,'WILSON      ', 230.0000,1,   2,   2,   1,0.96209, -15.5760
  3432,'HELMS PP    ',  20.0000,1,   2,   2,   1,0.96880, -13.8643
  3433,'MC CALL     ',  20.0000,2,   2,   2,   1,1.00024,  -1.1902
  3501,'FULTON      ', 230.0000,1,   2,   2,   1,1.00000,   1.6160
  3531,'FULTON      ',  20.0000,2,   2,   2,   1,1.00036,   1.9279
  3601,'HUMBOLDT    ', 115.0000,1,   2,   2,   1,1.01500,  -3.9450
  3631,'HUMBOLDT    ',  20.0000,2,   2,   2,   1,1.01477,  -3.9180
  3701,'SUMMIT      ', 115.0000,1,   1,   9,   1,1.00656, -20.6887
  3731,'SUMMIT      ',  20.0000,2,   1,   9,   1,1.00596, -20.6259
  3801,'DIABLO      ', 500.0000,1,   2,   2,   1,1.04900,   0.2332
  3802,'GATES       ', 500.0000,1,   2,   2,   1,1.03709,  -5.7476
  3803,'MIDWAY      ', 500.0000,1,   2,   2,   1,1.04617,  -7.1165
  3804,'GATES       ', 230.0000,1,   2,   2,   1,1.00233,  -7.1238
  3805,'MIDWAY      ', 230.0000,1,   2,   2,   1,1.03500,  -6.6568
  3806,'MORROBAY    ', 230.0000,1,   2,   2,   1,1.01900,  -3.5261
  3831,'DIABLO1     ',  20.0000,2,   2,   2,   1,1.04876,   0.7821
  3835,'MIDWAY      ',  20.0000,2,   2,   2,   1,1.03528,  -6.5555
  3836,'MORROBAY    ',  20.0000,2,   2,   2,   1,1.01896,  -3.3388
  3891,'GATES1      ', 500.0000,1,   2,   2,   1,1.05218,  -9.2501
  3892,'MIDWAY1     ', 500.0000,1,   2,   2,   1,1.03871,  -3.9080
  3893,'MIDWAY2     ', 500.0000,1,   2,   2,   1,1.03353, -13.1512
  3894,'MIDWAY3     ', 500.0000,1,   2,   2,   1,1.03851,  -3.8546
  3895,'MIDWAY4     ', 500.0000,1,   2,   2,   1,1.03372, -13.1722
  3896,'MIDWAY5     ', 500.0000,1,   2,   2,   1,1.03890,  -3.6959
  3897,'MIDWAY6     ', 500.0000,1,   2,   2,   1,1.03563, -13.0098
  3901,'LOSBANOS    ', 500.0000,1,   2,   2,   1,1.02990,  -6.0140
  3902,'MOSSLAND    ', 500.0000,1,   2,   2,   1,1.00000,  -2.2632
  3903,'TESLA       ', 500.0000,1,   2,   2,   1,1.03465,  -5.2887
  3904,'VACA-DIX    ', 500.0000,1,   2,   2,   1,1.03414,  -5.4622
  3905,'TABLE MT    ', 500.0000,1,   2,   2,   1,1.04915,  -6.1484
  3906,'ROUND MT    ', 500.0000,1,   2,   2,   1,1.06991,  -5.5014
  3907,'BELLOTA     ', 230.0000,1,   2,   2,   1,0.96956, -13.7171
  3908,'BRIGHTON    ', 230.0000,1,   2,   2,   1,0.97515, -16.5874
  3909,'COLGATE     ', 230.0000,1,   2,   2,   1,0.98747, -17.7611
  3910,'CORTINA     ', 230.0000,1,   2,   2,   1,0.97959, -12.9923
  3911,'COTWDPGE    ', 230.0000,1,   2,   2,   1,1.04304,  -4.1387
  3912,'GLENN       ', 230.0000,1,   2,   2,   1,1.02453, -10.2031
  3913,'GOLDHILL    ', 230.0000,1,   2,   2,   1,0.98796, -12.6866
  3914,'IGNACIO     ', 230.0000,1,   2,   2,   1,0.99136,  -2.1377
  3915,'LAKEVILE    ', 230.0000,1,   2,   2,   1,0.99702,  -3.3854
  3916,'LOGAN CR    ', 230.0000,1,   2,   2,   1,1.02219,  -9.9549
  3917,'LOSBANOS    ', 230.0000,1,   2,   2,   1,1.01012,  -8.3354
  3918,'MOSSLAND    ', 230.0000,1,   2,   2,   1,0.99384,  -6.0267
  3919,'PALERMO     ', 230.0000,1,   2,   2,   1,0.99679, -16.6181
  3920,'RIO OSO     ', 230.0000,1,   2,   2,   1,0.99024, -16.2913
  3921,'ROUND MT    ', 230.0000,1,   2,   2,   1,1.07000,   1.5011
  3922,'TABLE MT    ', 230.0000,1,   2,   2,   1,1.01629, -12.7252
  3923,'TESLA       ', 230.0000,1,   2,   2,   1,1.01761,  -1.0250
  3924,'VACA-DIX    ', 230.0000,1,   2,   2,   1,1.00949,  -5.4562
  3925,'COTWDPGE    ', 115.0000,1,   2,   2,   1,1.02989,  -4.0766
  3926,'RIO OSO     ', 115.0000,1,   2,   2,   1,0.99786, -19.5525
  3931,'ROUND MT    ',  20.0000,2,   2,   2,   1,1.07066,   1.8629
  3932,'MOSSLAND    ',  20.0000,2,   2,   2,   1,0.99876,  -1.8745
  3933,'TESLA       ',  20.0000,3,   2,   2,   1,1.02000,   0.0000
  4001,'MALIN       ', 500.0000,1,   3,  11,   1,1.08000,  -5.9328
  4002,'SUMMER L    ', 500.0000,1,   3,  11,   1,1.11410,  -3.7122
  4003,'BURNS       ', 500.0000,1,   3,  11,   1,1.12835,   4.1040
  4004,'GRIZZLY     ', 500.0000,1,   3,  11,   1,1.10132,  -5.7208
  4005,'JOHN DAY    ', 500.0000,1,   3,  11,   1,1.08000,  -5.3426
  4006,'BIG EDDY    ', 500.0000,1,   3,  11,   1,1.07594,  -8.9607
  4007,'CELILOCA    ', 500.0000,1,   3,  11,   1,1.07595,  -9.1337
  4008,'MALIN       ', 345.0000,1,   3,  11,   1,1.08013,  -8.1151
  4009,'BIG EDDY    ', 230.0000,1,   3,  11,   1,1.08000, -11.4342
  4010,'CELILO      ', 230.0000,1,   3,  11,   1,1.07871, -11.6749
  4031,'MALIN       ',  20.0000,2,   3,  11,   1,1.07685,  -5.5496
  4035,'JOHN DAY    ',  20.0000,2,   3,  11,   1,1.07767,  -4.7799
  4039,'DALLES21    ',  20.0000,2,   3,  13,   1,1.08393, -10.8847
  4090,'MALIN1      ', 500.0000,1,   3,  11,   1,1.11068,  -4.0346
  4091,'GRIZZLY1    ', 500.0000,1,   3,  11,   1,1.11061,  -4.8922
  4092,'GRIZZLY2    ', 500.0000,1,   3,  11,   1,1.09408,  -5.9281
  4093,'GRIZZLY3    ', 500.0000,1,   3,  11,   1,1.09230,  -5.9578
  4094,'GRIZZLY4    ', 500.0000,1,   3,  11,   1,1.10593,  -5.7326
  4095,'GRIZZLY5    ', 500.0000,1,   3,  11,   1,1.09241,  -5.9401
  4096,'GRIZZLY6    ', 500.0000,1,   3,  11,   1,1.09042,  -5.9721
  4097,'GRIZZLY7    ', 500.0000,1,   3,  11,   1,1.10568,  -5.7304
  4101,'COULEE      ', 500.0000,1,   3,  13,   1,1.12800,  11.2675
  4102,'HANFORD     ', 500.0000,1,   3,  13,   1,1.09600,   3.9996
  4103,'BELL        ', 500.0000,1,   3,  13,   1,1.08083,  -3.7394
  4104,'BELL        ', 230.0000,1,   3,  13,   1,1.05178, -14.7067
  4131,'COULEE      ',  20.0000,2,   3,  13,   1,1.13099,  13.1594
  4132,'HANFORD     ',  20.0000,2,   3,  13,   1,1.09651,   5.6353
  4201,'NORTH       ', 500.0000,1,   3,  13,   1,1.12000,   4.0883
  4202,'WCASCADE    ', 500.0000,1,   3,  13,   1,1.06000,  -8.2491
  4203,'WILLAMET    ', 500.0000,1,   3,  13,   1,1.02932, -11.4989
  4204,'MERIDIAN    ', 500.0000,1,   3,  13,   1,1.06186,  -7.7302
  4231,'NORTH G3    ',  20.0000,2,   3,  13,   1,1.12632,   5.0125
  4232,'WCASCADE    ',  20.0000,2,   3,  13,   1,1.05994,  -8.0228
  5001,'CANADA      ', 500.0000,1,   3,   4,   1,1.05000,  -5.7601
  5002,'CANALB      ', 500.0000,1,   3,   1,   1,1.05500,  -6.9723
  5003,'CA230TO     ', 230.0000,1,   3,   1,   1,1.05368, -10.4489
  5004,'CA230       ', 230.0000,1,   3,   4,   1,1.08678, -12.6232
  5031,'CANAD G1    ',  20.0000,2,   3,   4,   1,1.05458,  -4.0012
  5032,'CMAIN GM    ',  20.0000,2,   3,   1,   1,1.06140,  -4.5561
  6101,'MIDPOINT    ', 500.0000,1,   3,   6,   1,1.06620,  13.9306
  6102,'MIDPOINT    ', 345.0000,1,   3,   6,   1,1.03000,  16.7066
  6103,'BORAH       ', 345.0000,1,   3,   6,   1,1.01551,  14.8857
...
 0 /End of Bus data, Begin Load data
  1002,'1 ',1,   1,   3,   226.840,  -600.000,     0.000,     0.000,     0.000,     0.000,   1,1
  1003,'1 ',1,   1,  10,  2153.320,   366.850,     0.000,     0.000,     0.000,     0.000,   1,1
  1004,'1 ',1,   1,  10,  1037.950,     5.520,     0.000,     0.000,     0.000,     0.000,   1,1
  1101,'1 ',1,   1,   3,  4527.370,  -137.040,     0.000,     0.000,     0.000,     0.000,   1,1
  1102,'1 ',1,   1,   3,   178.910,    23.650,     0.000,     0.000,     0.000,     0.000,   1,1
  1201,'1 ',1,   1,   3,   168.050,    -2.040,     0.000,     0.000,     0.000,     0.000,   1,1
  1202,'1 ',1,   1,   3,   875.610,   287.130,     0.000,     0.000,     0.000,     0.000,   1,1
  1301,'1 ',1,   1,   3,  2704.780,   352.830,     0.000,     0.000,     0.000,     0.000,   1,1
  1302,'1 ',1,   1,   9,    17.510,     2.290,     0.000,     0.000,     0.000,     0.000,   1,1
  1303,'1 ',1,   1,   9,  6235.140,   813.350,     0.000,     0.000,     0.000,     0.000,   1,1
  1401,'1 ',1,   1,   3,  6535.540,  1524.590,     0.000,     0.000,     0.000,     0.000,   1,1
  1402,'1 ',1,   1,   3,  5373.330,  -601.660,     0.000,     0.000,     0.000,     0.000,   1,1
  2000,'1 ',1,   4,   7,  2207.190,   287.920,     0.000,     0.000,     0.000,     0.000,   1,1
  2100,'1 ',1,   2,   2,   253.040,    49.350,     0.000,     0.000,     0.000,     0.000,   1,1
  2202,'1 ',1,   2,   2,  1400.760,   244.990,     0.000,     0.000,     0.000,     0.000,   1,1
  2203,'1 ',1,   2,   2,  1537.700,   250.450,     0.000,     0.000,     0.000,     0.000,   1,1
  2400,'1 ',1,   2,   2,   763.510,    69.830,     0.000,     0.000,     0.000,     0.000,   1,1
  2401,'1 ',1,   2,   2,   794.390,    94.750,     0.000,     0.000,     0.000,     0.000,   1,1
  2402,'1 ',1,   2,   2,   974.150,    74.110,     0.000,     0.000,     0.000,     0.000,   1,1
  2403,'1 ',1,   2,   2,   949.960,    35.050,     0.000,     0.000,     0.000,     0.000,   1,1
  2405,'1 ',1,   2,   2,   742.750,    20.640,     0.000,     0.000,     0.000,     0.000,   1,1
  2406,'1 ',1,   2,   2,   664.340,   -36.750,     0.000,     0.000,     0.000,     0.000,   1,1
  2407,'1 ',1,   2,   2,  1569.980,   -33.330,     0.000,     0.000,     0.000,     0.000,   1,1
  2408,'1 ',1,   2,   2,  1568.950,   -65.360,     0.000,     0.000,     0.000,     0.000,   1,1
  2409,'1 ',1,   2,   2,  1441.600,   -78.030,     0.000,     0.000,     0.000,     0.000,   1,1
  2410,'1 ',1,   2,   2,  1421.480,    52.540,     0.000,     0.000,     0.000,     0.000,   1,1
  2411,'1 ',1,   2,   2,   978.970,    68.370,     0.000,     0.000,     0.000,     0.000,   1,1
  2502,'1 ',1,   2,   2,  2136.280,   -83.030,     0.000,     0.000,     0.000,     0.000,   1,1
  2503,'1 ',1,   2,   2,  1661.330,   181.790,     0.000,     0.000,     0.000,     0.000,   1,1
  2600,'1 ',0,   2,   2, -1680.780,     0.001,     0.000,     0.000,     0.000,     0.000,   1,1
  2602,'1 ',1,   2,   2,    89.500,    11.700,     0.000,     0.000,     0.000,     0.000,   1,1
  2604,'1 ',1,   2,   2,  1845.700,     0.000,     0.000,     0.000,     0.000,     0.000,   1,1
  2608,'1 ',1,   2,   2,    89.350,    11.660,     0.000,     0.000,     0.000,     0.000,   1,1
  2609,'1 ',1,   2,   2,   120.750,    24.180,     0.000,     0.000,     0.000,     0.000,   1,1
  2610,'1 ',1,   2,   2,    89.350,    11.660,     0.000,     0.000,     0.000,     0.000,   1,1
  2611,'1 ',1,   2,   2,    89.350,    11.660,     0.000,     0.000,     0.000,     0.000,   1,1
  2612,'1 ',1,   2,   2,   108.110,    22.340,     0.000,     0.000,     0.000,     0.000,   1,1
  2613,'1 ',1,   2,   2,   286.220,    58.200,     0.000,     0.000,     0.000,     0.000,   1,1
  2614,'1 ',1,   2,   2,   123.420,    25.060,     0.000,     0.000,     0.000,     0.000,   1,1
  2615,'1 ',1,   2,   2,   722.530,   118.280,     0.000,     0.000,     0.000,     0.000,   1,1
  2616,'1 ',1,   2,   2,   104.640,    21.490,     0.000,     0.000,     0.000,     0.000,   1,1
  2617,'1 ',1,   2,   2,   108.220,    22.380,     0.000,     0.000,     0.000,     0.000,   1,1
  2618,'1 ',1,   2,   2,   793.430,    -5.540,     0.000,     0.000,     0.000,     0.000,   1,1
  2619,'1 ',0,   2,   2, -2497.430,     0.000,     0.000,     0.000,     0.000,     0.000,   1,1
  2620,'1 ',1,   2,   2,   183.440,    15.740,     0.000,     0.000,     0.000,     0.000,   1,1
  2621,'1 ',1,   2,   2,   212.090,   -56.550,     0.000,     0.000,     0.000,     0.000,   1,1
  3101,'1 ',1,   2,   2,   307.720,    47.720,     0.000,     0.000,     0.000,     0.000,   1,1
  3102,'1 ',1,   2,   2,   143.690,    22.490,     0.000,     0.000,     0.000,     0.000,   1,1
  3103,'1 ',1,   2,   2,   377.650,    53.800,     0.000,     0.000,     0.000,     0.000,   1,1
  3104,'1 ',1,   2,   2,   279.490,    36.250,     0.000,     0.000,     0.000,     0.000,   1,1
  3105,'1 ',1,   2,   2,   215.370,    44.180,     0.000,     0.000,     0.000,     0.000,   1,1
  3201,'1 ',1,   2,   2,   418.680,    89.100,     0.000,     0.000,     0.000,     0.000,   1,1
  3202,'1 ',1,   2,   2,   530.160,    75.870,     0.000,     0.000,     0.000,     0.000,   1,1
  3203,'1 ',1,   2,   2,   592.870,   143.340,     0.000,     0.000,     0.000,     0.000,   1,1
  3204,'1 ',1,   2,   2,   601.910,    85.780,     0.000,     0.000,     0.000,     0.000,   1,1
  3205,'1 ',1,   2,   2,   492.600,    70.330,     0.000,     0.000,     0.000,     0.000,   1,1
  3302,'1 ',1,   2,   2,   311.410,    77.520,     0.000,     0.000,     0.000,     0.000,   1,1
  3303,'1 ',1,   2,   2,   562.870,   135.640,     0.000,     0.000,     0.000,     0.000,   1,1
  3304,'1 ',1,   2,   2,   480.850,   110.680,     0.000,     0.000,     0.000,     0.000,   1,1
  3305,'1 ',1,   2,   2,   387.720,    55.220,     0.000,     0.000,     0.000,     0.000,   1,1
  3401,'1 ',1,   2,   2,   505.820,   124.220,     0.000,     0.000,     0.000,     0.000,   1,1
  3403,'1 ',1,   2,   2,   464.370,    66.220,     0.000,     0.000,     0.000,     0.000,   1,1
  3404,'1 ',1,   2,   2,   395.710,    56.180,     0.000,     0.000,     0.000,     0.000,   1,1
  3405,'1 ',1,   2,   2,   406.990,    58.200,     0.000,     0.000,     0.000,     0.000,   1,1
  3501,'1 ',1,   2,   2,   562.510,    80.110,     0.000,     0.000,     0.000,     0.000,   1,1
  3601,'1 ',1,   2,   2,    94.370,    13.360,     0.000,     0.000,     0.000,     0.000,   1,1
  3701,'1 ',1,   1,   9,   319.130,    16.060,     0.000,     0.000,     0.000,     0.000,   1,1
  3801,'1 ',1,   2,   2,   172.100,    42.670,     0.000,     0.000,     0.000,     0.000,   1,1
  3804,'1 ',1,   2,   2,   202.290,    50.290,     0.000,     0.000,     0.000,     0.000,   1,1
  3805,'1 ',1,   2,   2,   449.450,   146.800,     0.000,     0.000,     0.000,     0.000,   1,1
  3806,'1 ',1,   2,   2,   260.630,    37.230,     0.000,     0.000,     0.000,     0.000,   1,1
  3902,'1 ',1,   2,   2,   137.690,    34.420,     0.000,     0.000,     0.000,     0.000,   1,1
  3903,'1 ',1,   2,   2,   197.350,    28.810,     0.000,     0.000,     0.000,     0.000,   1,1
  3907,'1 ',1,   2,   2,   417.280,    57.330,     0.000,     0.000,     0.000,     0.000,   1,1
  3908,'1 ',1,   2,   2,   182.230,    22.740,     0.000,     0.000,     0.000,     0.000,   1,1
  3909,'1 ',1,   2,   2,   157.390,    37.470,     0.000,     0.000,     0.000,     0.000,   1,1
  3910,'1 ',1,   2,   2,   223.770,    32.760,     0.000,     0.000,     0.000,     0.000,   1,1
  3911,'1 ',1,   2,   2,   213.160,    43.760,     0.000,     0.000,     0.000,     0.000,   1,1
  3912,'1 ',1,   2,   2,   160.770,    -0.600,     0.000,     0.000,     0.000,     0.000,   1,1
  3913,'1 ',1,   2,   2,   297.380,    39.300,     0.000,     0.000,     0.000,     0.000,   1,1
  3914,'1 ',1,   2,   2,   205.450,    47.510,     0.000,     0.000,     0.000,     0.000,   1,1
  3915,'1 ',1,   2,   2,   230.160,    48.550,     0.000,     0.000,     0.000,     0.000,   1,1
  3916,'1 ',1,   2,   2,   142.870,     0.000,     0.000,     0.000,     0.000,     0.000,   1,1
  3917,'1 ',1,   2,   2,   216.330,    40.320,     0.000,     0.000,     0.000,     0.000,   1,1
  3918,'1 ',1,   2,   2,   287.760,    68.110,     0.000,     0.000,     0.000,     0.000,   1,1
  3919,'1 ',1,   2,   2,   171.120,    23.030,     0.000,     0.000,     0.000,     0.000,   1,1
  3920,'1 ',1,   2,   2,   157.280,    21.870,     0.000,     0.000,     0.000,     0.000,   1,1
  3921,'1 ',1,   2,   2,   135.800,    31.340,     0.000,     0.000,     0.000,     0.000,   1,1
  3922,'1 ',1,   2,   2,   235.590,    30.640,     0.000,     0.000,     0.000,     0.000,   1,1
  3923,'1 ',1,   2,   2,   359.680,    60.490,     0.000,     0.000,     0.000,     0.000,   1,1
  3924,'1 ',1,   2,   2,   303.000,    43.520,     0.000,     0.000,     0.000,     0.000,   1,1
  3926,'1 ',1,   2,   2,   243.690,    15.390,     0.000,     0.000,     0.000,     0.000,   1,1
  4002,'1 ',1,   3,  11,   172.130,    22.910,     0.000,     0.000,     0.000,     0.000,   1,1
  4004,'1 ',1,   3,  11,   273.330,    36.050,     0.000,     0.000,     0.000,     0.000,   1,1
  4005,'1 ',1,   3,  11,   480.110,   157.420,     0.000,     0.000,     0.000,     0.000,   1,1
  4008,'1 ',1,   3,  11,   286.350,    37.510,     0.000,     0.000,     0.000,     0.000,   1,1
  4009,'1 ',1,   3,  11,  2208.740,   431.400,     0.000,     0.000,     0.000,     0.000,   1,1
  4010,'1 ',1,   3,  11,  3133.110,     0.000,     0.000,     0.000,     0.000,     0.000,   1,1
  4101,'1 ',1,   3,  13,   995.030,   129.780,     0.000,     0.000,     0.000,     0.000,   1,1
  4102,'1 ',1,   3,  13,   480.650,    68.660,     0.000,     0.000,     0.000,     0.000,   1,1
  4103,'1 ',1,   3,  13,    11.680,     1.520,     0.000,     0.000,     0.000,     0.000,   1,1
  4104,'1 ',1,   3,  13,  2550.580,   335.720,     0.000,     0.000,     0.000,     0.000,   1,1
  4201,'1 ',1,   3,  13,  5762.660,   461.010,     0.000,     0.000,     0.000,     0.000,   1,1
  4202,'1 ',1,   3,  13,  4558.240,   594.630,     0.000,     0.000,     0.000,     0.000,   1,1
  4203,'1 ',1,   3,  13,  4434.750,   585.800,     0.000,     0.000,     0.000,     0.000,   1,1
  4204,'1 ',1,   3,  13,  1008.370,   130.740,     0.000,     0.000,     0.000,     0.000,   1,1
  5001,'1 ',1,   3,   4,  7574.050,  1721.380,     0.000,     0.000,     0.000,     0.000,   1,1
  5002,'1 ',1,   3,   1,  9003.980,  1174.360,     0.000,     0.000,     0.000,     0.000,   1,1
  5003,'1 ',1,   3,   1,   620.890,    81.740,     0.000,     0.000,     0.000,     0.000,   1,1
  6102,'1 ',1,   3,   6,  1053.140,  -345.280,     0.000,     0.000,     0.000,     0.000,   1,1
  6103,'1 ',1,   3,   6,   392.450,    51.260,     0.000,     0.000,     0.000,     0.000,   1,1
  6104,'1 ',1,   3,   6,  1700.080,   222.420,     0.000,     0.000,     0.000,     0.000,   1,1
  6201,'1 ',1,   3,   8,   205.820,    26.860,     0.000,     0.000,     0.000,     0.000,   1,1
  6202,'1 ',1,   3,   8,    89.030,    13.620,     0.000,     0.000,     0.000,     0.000,   1,1
  6203,'1 ',1,   3,   8,   612.730,   145.270,     0.000,     0.000,     0.000,     0.000,   1,1
  6204,'1 ',1,   3,   8,   702.080,   157.710,     0.000,     0.000,     0.000,     0.000,   1,1
  6205,'1 ',1,   3,   8,   489.280,    86.340,     0.000,     0.000,     0.000,     0.000,   1,1
  6301,'1 ',1,   3,  14,   517.660,    67.700,     0.000,     0.000,     0.000,     0.000,   1,1
  6302,'1 ',1,   3,  14,   592.500,    77.400,     0.000,     0.000,     0.000,     0.000,   1,1
  6303,'1 ',1,   3,  14,   746.600,    97.400,     0.000,     0.000,     0.000,     0.000,   1,1
  6305,'1 ',1,   3,  14,    60.230,    19.750,     0.000,     0.000,     0.000,     0.000,   1,1
  6401,'1 ',1,   1,   9,  1746.220,   237.840,     0.000,     0.000,     0.000,     0.000,   1,1
  6402,'1 ',1,   1,   9,   280.570,    37.700,     0.000,     0.000,     0.000,     0.000,   1,1
  6403,'1 ',1,   1,   9,     2.200,     0.270,     0.000,     0.000,     0.000,     0.000,   1,1
  6404,'1 ',1,   1,   9,    29.750,     3.980,     0.000,     0.000,     0.000,     0.000,   1,1
  6501,'1 ',1,   3,  12,   197.330,    65.310,     0.000,     0.000,     0.000,     0.000,   1,1
  6502,'1 ',1,   3,  12,  1570.440,   283.000,     0.000,     0.000,     0.000,     0.000,   1,1
  6503,'1 ',1,   3,  12,   441.150,   144.600,     0.000,     0.000,     0.000,     0.000,   1,1
  6504,'1 ',1,   3,  12,   300.410,    39.630,     0.000,     0.000,     0.000,     0.000,   1,1
  6505,'1 ',1,   3,  12,     7.020,     2.380,     0.000,     0.000,     0.000,     0.000,   1,1
  6507,'1 ',1,   3,  12,   554.920,   -64.610,     0.000,     0.000,     0.000,     0.000,   1,1
  6508,'1 ',1,   3,  12,   132.630,    43.730,     0.000,     0.000,     0.000,     0.000,   1,1
  6509,'1 ',1,   3,  12,     8.670,     2.870,     0.000,     0.000,     0.000,     0.000,   1,1
  6510,'1 ',1,   3,  12,  1949.220,  -109.330,     0.000,     0.000,     0.000,     0.000,   1,1
  7001,'1 ',1,   3,   5,  7000.920,   772.350,     0.000,     0.000,     0.000,     0.000,   1,1
  7002,'1 ',1,   3,   5,  2554.830,  -138.070,     0.000,     0.000,     0.000,     0.000,   1,1
  8003,'1 ',1,   2,   2,   587.400,    76.630,     0.000,     0.000,     0.000,     0.000,   1,1
  8004,'1 ',1,   2,   2,  3409.100,   444.700,     0.000,     0.000,     0.000,     0.000,   1,1
  8005,'1 ',1,   2,   2,  1216.870,   162.460,     0.000,     0.000,     0.000,     0.000,   1,1
 0 /End of Load data, Begin Fixed shunt data
  4001,'1 ',1,     0.000,   600.000
  6104,'1 ',1,     0.000,   400.000
  6304,'1 ',1,     0.000,   600.000
  6401,'1 ',1,     0.000,   600.000
  7001,'1 ',1,     0.000,   200.000
 0 /End of Fixed shunt data, Begin Generator data
  1032,'C ',   712.000,    -3.414,   200.000,  -200.000,1.01400,  1002,   873.000, 0.00000E+0, 2.00000E-1, 0.00000E+0, 0.00000E+0,1.00000,1,  100.0,   873.000,     0.000,   1,1.0000
  1032,'G ',   856.000,    -4.104,   357.000,  -357.000,1.01400,  1002,  1050.000, 0.00000E+0, 2.00000E-1, 0.00000E+0, 0.00000E+0,1.00000,1,  100.0,  1050.000,     0.000,   1,1.0000
  1032,'S ',   520.000,    -2.493,   360.000,  -360.000,1.01400,  1002,   638.000, 0.00000E+0, 2.00000E-1, 0.00000E+0, 0.00000E+0,1.00000,1,  100.0,   638.000,     0.000,   1,1.0000,    ,      ,    ,      ,    ,      ,1, 1.0000
  1034,'C ',  1847.000,   242.133,   500.000,  -500.000,1.03000,  1004,  2100.000, 0.00000E+0, 2.00000E-1, 0.00000E+0, 0.00000E+0,1.00000,1,  100.0,  1944.000,     0.000,   1,1.0000
  1034,'G ',  2565.000,   336.260,   918.000,  -918.000,1.03000,  1004,  2900.000, 0.00000E+0, 2.00000E-1, 0.00000E+0, 0.00000E+0,1.00000,1,  100.0,  2700.000,     0.000,   1,1.0000
  1034,'W ',  1598.000,   209.490,   800.000,  -800.000,1.03000,  1004,  1682.000, 0.00000E+0, 2.00000E-1, 0.00000E+0, 0.00000E+0,1.00000,1,  100.0,  1682.000,     0.000,   1,1.0000,    ,      ,    ,      ,    ,      ,1, 1.0000
  1131,'C ',   530.000,   -19.120,   308.000,  -308.000,1.01000,  1101,  1268.000, 0.00000E+0, 2.00000E-1, 0.00000E+0, 0.00000E+0,1.00000,1,  100.0,  1268.000,     0.000,   1,1.0000
  1131,'G ',  2064.000,   -74.459,  1916.000, -1916.000,1.01000,  1101,  4934.000, 0.00000E+0, 2.00000E-1, 0.00000E+0, 0.00000E+0,1.00000,1,  100.0,  4934.000,     0.000,   1,1.0000
  1232,'C ',  2728.000,     0.907,  1208.000, -1208.000,1.08000,  1202,  4977.000, 0.00000E+0, 2.00000E-1, 0.00000E+0, 0.00000E+0,1.00000,1,  100.0,  4977.000,     0.000,   1,1.0000
  1232,'H ',   657.000,     0.218,   628.000,  -628.000,1.08000,  1202,  1199.000, 0.00000E+0, 2.00000E-1, 0.00000E+0, 0.00000E+0,1.00000,1,  100.0,  1199.000,     0.000,   1,1.0000
  1331,'G ',  1986.000,    23.786,   841.000,  -841.000,1.04500,  1301,  2167.000, 0.00000E+0, 2.00000E-1, 0.00000E+0, 0.00000E+0,1.00000,1,  100.0,  2167.000,     0.000,   1,1.0000
  1331,'H ',  2133.000,    25.546,  1219.000, -1219.000,1.04500,  1301,  2328.000, 0.00000E+0, 2.00000E-1, 0.00000E+0, 0.00000E+0,1.00000,1,  100.0,  2328.000,     0.000,   1,1.0000
  1333,'C ',   218.000,    27.619,   303.000,  -303.000,1.00500,  1303,   418.000, 0.00000E+0, 2.00000E-1, 0.00000E+0, 0.00000E+0,1.00000,1,  100.0,   418.000,     0.000,   1,1.0000
  1333,'G ',  3662.000,   463.950,  2746.000, -2746.000,1.00500,  1303,  7011.000, 0.00000E+0, 2.00000E-1, 0.00000E+0, 0.00000E+0,1.00000,1,  100.0,  7011.000,     0.000,   1,1.0000
  1333,'S ',  1266.000,   160.394,  1300.000, -1300.000,1.00500,  1303,  2423.000, 0.00000E+0, 2.00000E-1, 0.00000E+0, 0.00000E+0,1.00000,1,  100.0,  2423.000,     0.000,   1,1.0000,    ,      ,    ,      ,    ,      ,1, 1.0000
  1431,'G ',  5129.000,   712.419,  3559.000, -3559.000,1.03500,  1401,  9170.000, 0.00000E+0, 2.00000E-1, 0.00000E+0, 0.00000E+0,1.00000,1,  100.0,  9170.000,     0.000,   1,1.0000
  1431,'N ',  2355.000,   327.110,  2057.000, -2057.000,1.03500,  1401,  4210.000, 0.00000E+0, 2.00000E-1, 0.00000E+0, 0.00000E+0,1.00000,1,  100.0,  4210.000,     0.000,   1,1.0000
  1431,'S ',  1353.000,   187.932,  1000.000, -1000.000,1.03500,  1401,  2419.000, 0.00000E+0, 2.00000E-1, 0.00000E+0, 0.00000E+0,1.00000,1,  100.0,  2419.000,     0.000,   1,1.0000,    ,      ,    ,      ,    ,      ,1, 1.0000
  2030,'E ',   605.000,    70.138,   350.000,  -350.000,1.00000,  2000,   699.000, 0.00000E+0, 2.00000E-1, 0.00000E+0, 0.00000E+0,1.00000,1,  100.0,   699.000,     0.000,   1,1.0000
  2030,'G ',  1853.000,   214.820,  1070.000, -1070.000,1.00000,  2000,  2140.000, 0.00000E+0, 2.00000E-1, 0.00000E+0, 0.00000E+0,1.00000,1,  100.0,  2140.000,     0.000,   1,1.0000
  2130,'E ',   573.000,    49.515,   254.000,  -254.000,1.03500,  2100,   831.000, 0.00000E+0, 2.00000E-1, 0.00000E+0, 0.00000E+0,1.00000,1,  100.0,   831.000,     0.000,   1,1.0000
  2130,'G ',   404.000,    34.911,   200.000,  -200.000,1.03500,  2100,   586.000, 0.00000E+0, 2.00000E-1, 0.00000E+0, 0.00000E+0,1.00000,1,  100.0,   586.000,     0.000,   1,1.0000
  2130,'H ',   273.000,    23.591,   250.000,  -250.000,1.03500,  2100,   396.000, 0.00000E+0, 2.00000E-1, 0.00000E+0, 0.00000E+0,1.00000,1,  100.0,   396.000,     0.000,   1,1.0000
  2130,'S ',    79.000,     6.827,    86.000,   -86.000,1.03500,  2100,   115.000, 0.00000E+0, 2.00000E-1, 0.00000E+0, 0.00000E+0,1.00000,1,  100.0,   115.000,     0.000,   1,1.0000,    ,      ,    ,      ,    ,      ,1, 1.0000
  2233,'DG',   285.000,   108.031,   304.000,  -118.000,1.00500,  2203,  1035.000, 0.00000E+0, 2.00000E-1, 0.00000E+0, 0.00000E+0,1.00000,1,  100.0,  1035.000,     0.000,   1,1.0000
  2233,'EG',   506.000,   191.802,   611.000,  -181.000,1.00500,  2203,  1837.000, 0.00000E+0, 2.00000E-1, 0.00000E+0, 0.00000E+0,1.00000,1,  100.0,  1837.000,     0.000,   1,1.0000
  2233,'TG',   202.000,    76.569,   206.000,  -155.000,1.00500,  2203,   733.000, 0.00000E+0, 2.00000E-1, 0.00000E+0, 0.00000E+0,1.00000,1,  100.0,   733.000,     0.000,   1,1.0000
  2332,'S ',   878.000,    42.002,   590.000,  -364.000,1.03500,  2302,  1333.000, 0.00000E+0, 2.00000E-1, 0.00000E+0, 0.00000E+0,1.00000,1,  100.0,  1333.000,     0.000,   1,1.0000,    ,      ,    ,      ,    ,      ,1, 1.0000
  2431,'S ',   500.000,   -44.770,   800.000,  -800.000,1.05000,     0,  1666.000, 0.00000E+0, 2.00000E-1, 0.00000E+0, 0.00000E+0,1.00000,1,  100.0,  1666.000,     0.000,   1,1.0000,    ,      ,    ,      ,    ,      ,1, 1.0000
  2434,'S ',   500.000,  -337.526,   500.000,  -500.000,1.02000,     0,  1489.000, 0.00000E+0, 2.00000E-1, 0.00000E+0, 0.00000E+0,1.00000,1,  100.0,  1489.000,     0.000,   1,1.0000,    ,      ,    ,      ,    ,      ,1, 1.0000
  2438,'EG',   503.000,    22.315,   728.000,  -454.000,1.00900,  2408,  2292.000, 0.00000E+0, 2.00000E-1, 0.00000E+0, 0.00000E+0,1.00000,1,  100.0,  2292.000,     0.000,   1,1.0000
  2438,'ND',     0.000,     0.000,     0.500,     0.000,1.00900,  2408,   100.000, 0.00000E+0, 2.00000E-1, 0.00000E+0, 0.00000E+0,1.00000,0,  100.0,     0.000, -1006.000,   1,1.0000
  2438,'RG',  1195.999,    53.059,  1902.000, -1168.000,1.00900,  2408,  5451.000, 0.00000E+0, 2.00000E-1, 0.00000E+0, 0.00000E+0,1.00000,1,  100.0,  5451.000,     0.000,   1,1.0000
  2438,'S ',   251.000,    11.135,   800.000,  -800.000,1.00900,  2408,  1146.000, 0.00000E+0, 2.00000E-1, 0.00000E+0, 0.00000E+0,1.00000,1,  100.0,  1146.000,     0.000,   1,1.0000,    ,      ,    ,      ,    ,      ,1, 1.0000
  2438,'SG',   901.000,    39.972,  2301.000, -1053.000,1.00900,  2408,  4110.000, 0.00000E+0, 2.00000E-1, 0.00000E+0, 0.00000E+0,1.00000,1,  100.0,  4110.000,     0.000,   1,1.0000
  2438,'SH',   233.000,    10.337,   659.000,  -523.000,1.00900,  2408,  1460.000, 0.00000E+0, 2.00000E-1, 0.00000E+0, 0.00000E+0,1.00000,1,  100.0,  1460.000,     0.000,   1,1.0000
  2438,'SW',   704.000,    31.232,   561.000,  -553.000,1.00900,  2408,  3210.000, 0.00000E+0, 2.00000E-1, 0.00000E+0, 0.00000E+0,1.00000,1,  100.0,  3210.000,     0.000,   1,1.0000,    ,      ,    ,      ,    ,      ,1, 1.0000
  2438,'WG',  1276.000,    56.608,  1910.000, -1150.000,1.00900,  2408,  5817.000, 0.00000E+0, 2.00000E-1, 0.00000E+0, 0.00000E+0,1.00000,1,  100.0,  5817.000,     0.000,   1,1.0000
  2439,'S ',  1000.000,  -242.674,   800.000,  -800.000,1.02000,  2409,  1666.000, 0.00000E+0, 2.00000E-1, 0.00000E+0, 0.00000E+0,1.00000,1,  100.0,  1666.000,     0.000,   1,1.0000,    ,      ,    ,      ,    ,      ,1, 1.0000
  2533,'S ',  1899.000,   127.507,  1100.000,  -820.000,1.00900,  2503,  1999.000, 0.00000E+0, 2.00000E-1, 0.00000E+0, 0.00000E+0,1.00000,1,  100.0,  1999.000,     0.000,   1,1.0000,    ,      ,    ,      ,    ,      ,1, 1.0000
  2600,'1 ',  1680.780,    -0.801,  9999.000, -9999.000,1.05578,     0,  2500.000, 0.00000E+0, 2.00000E-1, 0.00000E+0, 0.00000E+0,1.00000,1,  100.0,  2000.000,     0.000,   1,1.0000
  2619,'1 ',  2497.430,    -0.264,  9999.000, -9999.000,1.01253,     0,  3000.000, 0.00000E+0, 2.00000E-1, 0.00000E+0, 0.00000E+0,1.00000,1,  100.0,  9999.000,     0.000,   1,1.0000
  2630,'G ',  2282.000,   184.809,  1346.000, -1346.000,1.00400,  2610,  3947.000, 0.00000E+0, 2.00000E-1, 0.00000E+0, 0.00000E+0,1.00000,1,  100.0,  3947.000,     0.000,   1,1.0000
  2631,'S ',   232.000,    32.062,   350.000,  -350.000,1.01500,  2611,   520.000, 0.00000E+0, 2.00000E-1, 0.00000E+0, 0.00000E+0,1.00000,1,  100.0,   520.000,     0.000,   1,1.0000,    ,      ,    ,      ,    ,      ,1, 1.0000
  2634,'C ',  1537.000,   -18.878,   950.000,  -950.000,1.03000,  2604,  1900.000, 0.00000E+0, 2.00000E-1, 0.00000E+0, 0.00000E+0,1.00000,1,  100.0,  1618.000,     0.000,   1,1.0000
  2637,'H ',    83.000,    40.858,   110.000,  -110.000,1.01357,  2612,   200.000, 0.00000E+0, 2.00000E-1, 0.00000E+0, 0.00000E+0,1.00000,1,  100.0,    87.000,     0.000,   1,1.0000
  2638,'H ',   200.000,     7.749,   100.000,  -100.000,1.01500,  2608,   407.000, 0.00000E+0, 2.00000E-1, 0.00000E+0, 0.00000E+0,1.00000,1,  100.0,   407.000,     0.000,   1,1.0000
  3133,'NG',    31.000,   -12.547,    42.000,   -29.000,0.99272,  3103,    80.000, 0.00000E+0, 2.00000E-1, 0.00000E+0, 0.00000E+0,1.00000,1,  100.0,    62.000,     0.000,   1,1.0000
  3133,'SC',     0.000,     0.000,   500.000,  -500.000,0.99272,  3103,   300.000, 0.00000E+0, 2.00000E-1, 0.00000E+0, 0.00000E+0,1.00000,0,  100.0,     0.100,     0.000,   1,1.0000
  3135,'MG',   206.000,    80.070,   239.000,  -201.000,1.00000,  3105,   541.000, 0.00000E+0, 2.00000E-1, 0.00000E+0, 0.00000E+0,1.00000,1,  100.0,   541.000,     0.000,   1,1.0000
  3135,'NG',    14.000,     5.442,   100.000,   -85.000,1.00000,  3105,    38.000, 0.00000E+0, 2.00000E-1, 0.00000E+0, 0.00000E+0,1.00000,1,  100.0,    38.000,     0.000,   1,1.0000
  3234,'DG',   104.000,    11.916,   101.000,   -75.000,1.01000,  3204,   177.000, 0.00000E+0, 2.00000E-1, 0.00000E+0, 0.00000E+0,1.00000,1,  100.0,   177.000,     0.000,   1,1.0000
  3234,'MG',  2261.000,   259.063,  1244.000, -1234.000,1.01000,  3204,  3853.000, 0.00000E+0, 2.00000E-1, 0.00000E+0, 0.00000E+0,1.00000,1,  100.0,  3853.000,     0.000,   1,1.0000
  3234,'NG',   608.000,    69.664,   382.000,  -212.000,1.01000,  3204,  1037.000, 0.00000E+0, 2.00000E-1, 0.00000E+0, 0.00000E+0,1.00000,1,  100.0,  1037.000,     0.000,   1,1.0000
  3234,'NW',  1021.000,   116.985,   150.000,  -110.000,1.01000,  3204,  1740.000, 0.00000E+0, 2.00000E-1, 0.00000E+0, 0.00000E+0,1.00000,1,  100.0,  1740.000,     0.000,   1,1.0000,    ,      ,    ,      ,    ,      ,1, 1.0000
  3333,'CG',   620.000,   124.860,   398.000,  -226.000,1.00000,  3303,  1012.000, 0.00000E+0, 2.00000E-1, 0.00000E+0, 0.00000E+0,1.00000,1,  100.0,  1012.000,     0.000,   1,1.0000
  3333,'NG',   191.000,    38.465,   202.000,  -143.000,1.00000,  3303,   312.000, 0.00000E+0, 2.00000E-1, 0.00000E+0, 0.00000E+0,1.00000,1,  100.0,   312.000,     0.000,   1,1.0000
  3432,'NP',     0.000,     0.000,  1568.000,  -941.000,1.00000,  3402,  3746.000, 0.00000E+0, 2.00000E-1, 0.00000E+0, 0.00000E+0,1.00000,0,  100.0,  3746.000, -2841.000,   1,1.0000
  3433,'NG',   481.000,    20.115,   231.000,  -175.000,1.00000,  3403,   921.000, 0.00000E+0, 2.00000E-1, 0.00000E+0, 0.00000E+0,1.00000,1,  100.0,   921.000,     0.000,   1,1.0000
  3433,'S ',   745.000,    31.155,   939.000,  -562.000,1.00000,  3403,  1426.000, 0.00000E+0, 2.00000E-1, 0.00000E+0, 0.00000E+0,1.00000,1,  100.0,  1426.000,     0.000,   1,1.0000,    ,      ,    ,      ,    ,      ,1, 1.0000
  3531,'CE',   783.000,    53.711,  1004.000,  -599.000,1.00000,  3501,  1424.000, 0.00000E+0, 2.00000E-1, 0.00000E+0, 0.00000E+0,1.00000,1,  100.0,  1424.000,     0.000,   1,1.0000
  3531,'NE',   293.000,    20.099,   253.000,  -181.000,1.00000,  3501,   533.000, 0.00000E+0, 2.00000E-1, 0.00000E+0, 0.00000E+0,1.00000,1,  100.0,   533.000,     0.000,   1,1.0000
  3531,'NH',    13.000,     0.892,    13.000,   -10.000,1.00000,  3501,    24.000, 0.00000E+0, 2.00000E-1, 0.00000E+0, 0.00000E+0,1.00000,1,  100.0,    24.000,     0.000,   1,1.0000
  3631,'NB',    30.000,   -14.000,    20.000,   -14.000,1.01500,  3601,    96.000, 0.00000E+0, 2.00000E-1, 0.00000E+0, 0.00000E+0,1.00000,1,  100.0,    96.000,     0.000,   1,1.0000
  3631,'NG',    67.000,   -33.096,    74.000,   -34.000,1.01500,  3601,   210.000, 0.00000E+0, 2.00000E-1, 0.00000E+0, 0.00000E+0,1.00000,1,  100.0,   210.000,     0.000,   1,1.0000
  3731,'NH',   222.000,  -121.000,   200.000,  -121.000,1.00000,  3701,   400.000, 0.00000E+0, 2.00000E-1, 0.00000E+0, 0.00000E+0,1.00000,1,  100.0,   243.000,     0.000,   1,1.0000
  3831,'NN',  2108.000,   -40.790,  1175.000,  -980.000,1.04900,  3801,  2323.000, 0.00000E+0, 2.00000E-1, 0.00000E+0, 0.00000E+0,1.00000,1,  100.0,  2323.000,     0.000,   1,1.0000
  3835,'ND',     0.000,     0.000,     0.500,     0.000,1.03500,  3805,   100.000, 0.00000E+0, 2.00000E-1, 0.00000E+0, 0.00000E+0,1.00000,0,  100.0,     0.000,  -510.000,   1,1.0000
  3835,'NG',   229.000,    34.830,   662.000,  -479.000,1.03500,  3805,  2025.000, 0.00000E+0, 2.00000E-1, 0.00000E+0, 0.00000E+0,1.00000,1,  100.0,  2025.000,     0.000,   1,1.0000
  3835,'S ',   150.000,    22.814,   500.000,  -500.000,1.03500,  3805,  1333.000, 0.00000E+0, 2.00000E-1, 0.00000E+0, 0.00000E+0,1.00000,1,  100.0,  1333.000,     0.000,   1,1.0000,    ,      ,    ,      ,    ,      ,1, 1.0000
  3836,'DG',   679.000,    -6.826,   476.000,  -352.000,1.01900,  3806,  1497.000, 0.00000E+0, 2.00000E-1, 0.00000E+0, 0.00000E+0,1.00000,1,  100.0,  1497.000,     0.000,   1,1.0000
  3931,'NB',   235.000,    23.539,   151.000,  -115.000,1.07000,  3921,   567.000, 0.00000E+0, 2.00000E-1, 0.00000E+0, 0.00000E+0,1.00000,1,  100.0,   567.000,     0.000,   1,1.0000
  3931,'NH',  1212.000,   121.402,  1284.000,  -946.000,1.07000,  3921,  2875.000, 0.00000E+0, 2.00000E-1, 0.00000E+0, 0.00000E+0,1.00000,1,  100.0,  2875.000,     0.000,   1,1.0000
  3932,'S ',  1355.000,  -242.778,  1150.000,  -500.000,1.00000,  3902,  1426.000, 0.00000E+0, 2.00000E-1, 0.00000E+0, 0.00000E+0,1.00000,1,  100.0,  1426.000,     0.000,   1,1.0000,    ,      ,    ,      ,    ,      ,1, 1.0000
  3933,'CG',   404.879,    56.722,   363.000,   -82.000,1.02000,     0,   865.000, 0.00000E+0, 2.00000E-1, 0.00000E+0, 0.00000E+0,1.00000,1,  100.0,   865.000,     0.000,   1,1.0000
  3933,'NB',   161.484,    22.623,    77.000,   -55.000,1.02000,     0,   345.000, 0.00000E+0, 2.00000E-1, 0.00000E+0, 0.00000E+0,1.00000,1,  100.0,   345.000,     0.000,   1,1.0000
  3933,'ND',     0.000,     0.000,     0.500,     0.000,1.02000,     0,   100.000, 0.00000E+0, 2.00000E-1, 0.00000E+0, 0.00000E+0,1.00000,0,  100.0,     0.000,  -449.000,   1,1.0000
  3933,'NG',   901.969,   126.362,   500.000,  -307.000,1.02000,     0,  1927.000, 0.00000E+0, 2.00000E-1, 0.00000E+0, 0.00000E+0,1.00000,1,  100.0,  1927.000,     0.000,   1,1.0000
  3933,'NH',  1275.020,   178.625,  1256.000, -1041.000,1.02000,     0,  2774.000, 0.00000E+0, 2.00000E-1, 0.00000E+0, 0.00000E+0,1.00000,1,  100.0,  2724.000,     0.000,   1,1.0000
  3933,'NW',   346.371,    48.525,   200.000,  -200.000,1.02000,     0,   740.000, 0.00000E+0, 2.00000E-1, 0.00000E+0, 0.00000E+0,1.00000,1,  100.0,   740.000,     0.000,   1,1.0000,    ,      ,    ,      ,    ,      ,1, 1.0000
  3933,'S ',   623.936,    87.411,   800.000,  -500.000,1.02000,     0,  1333.000, 0.00000E+0, 2.00000E-1, 0.00000E+0, 0.00000E+0,1.00000,1,  100.0,  1333.000,     0.000,   1,1.0000,    ,      ,    ,      ,    ,      ,1, 1.0000
  4031,'G ',   892.801,  -386.985,   502.000,  -502.000,1.08000,  4001,  2710.000, 0.00000E+0, 2.00000E-1, 0.00000E+0, 0.00000E+0,1.00000,1,  100.0,  2710.000,     0.000,   1,1.0000
  4031,'H ',   313.199,  -135.756,   489.000,  -489.000,1.08000,  4001,   952.000, 0.00000E+0, 2.00000E-1, 0.00000E+0, 0.00000E+0,1.00000,1,  100.0,   952.000,     0.000,   1,1.0000
  4031,'S ',   140.400,   -60.856,   250.000,  -250.000,1.08000,  4001,   427.000, 0.00000E+0, 2.00000E-1, 0.00000E+0, 0.00000E+0,1.00000,1,  100.0,   427.000,     0.000,   1,1.0000,    ,      ,    ,      ,    ,      ,1, 1.0000
  4031,'W ',   208.800,   -90.504,   240.000,  -240.000,1.08000,  4001,   635.000, 0.00000E+0, 2.00000E-1, 0.00000E+0, 0.00000E+0,1.00000,1,  100.0,   635.000,     0.000,   1,1.0000,    ,      ,    ,      ,    ,      ,1, 1.0000
  4035,'C ',   173.700,   -37.266,   255.000,  -255.000,1.08000,  4005,   642.000, 0.00000E+0, 2.00000E-1, 0.00000E+0, 0.00000E+0,1.00000,1,  100.0,   642.000,     0.000,   1,1.0000
  4035,'G ',   448.200,   -96.158,   307.000,  -307.000,1.08000,  4005,  1656.000, 0.00000E+0, 2.00000E-1, 0.00000E+0, 0.00000E+0,1.00000,1,  100.0,  1656.000,     0.000,   1,1.0000
  4035,'H ',   966.600,  -207.377,  1836.000, -1836.000,1.08000,  4005,  3572.000, 0.00000E+0, 2.00000E-1, 0.00000E+0, 0.00000E+0,1.00000,1,  100.0,  3572.000,     0.000,   1,1.0000
  4035,'W ',   697.500,  -149.644,   800.000,  -800.000,1.08000,  4005,  2578.000, 0.00000E+0, 2.00000E-1, 0.00000E+0, 0.00000E+0,1.00000,1,  100.0,  2578.000,     0.000,   1,1.0000,    ,      ,    ,      ,    ,      ,1, 1.0000
  4039,'G ',    77.400,    29.728,   102.000,  -102.000,1.08000,  4009,   150.000, 0.00000E+0, 2.00000E-1, 0.00000E+0, 0.00000E+0,1.00000,1,  100.0,   150.000,     0.000,   1,1.0000
  4039,'H ',  1455.300,   558.960,  1459.000, -1459.000,1.08000,  4009,  2839.000, 0.00000E+0, 2.00000E-1, 0.00000E+0, 0.00000E+0,1.00000,1,  100.0,  2839.000,     0.000,   1,1.0000
  4039,'W ',   712.800,   273.776,   500.000,  -500.000,1.08000,  4009,  1290.000, 0.00000E+0, 2.00000E-1, 0.00000E+0, 0.00000E+0,1.00000,1,  100.0,  1290.000,     0.000,   1,1.0000,    ,      ,    ,      ,    ,      ,1, 1.0000
  4131,'B ',   450.000,    43.451,   150.000,  -150.000,1.12800,  4101,   711.000, 0.00000E+0, 2.00000E-1, 0.00000E+0, 0.00000E+0,1.00000,1,  100.0,   711.000,     0.000,   1,1.0000
  4131,'H ',  7418.700,   716.334,  6482.000, -6482.000,1.12800,  4101, 12613.000, 0.00000E+0, 2.00000E-1, 0.00000E+0, 0.00000E+0,1.00000,1,  100.0, 12613.000,     0.000,   1,1.0000
  4131,'W ',   555.300,    53.619,   120.000,  -120.000,1.12800,  4101,   790.000, 0.00000E+0, 2.00000E-1, 0.00000E+0, 0.00000E+0,1.00000,1,  100.0,   790.000,     0.000,   1,1.0000,    ,      ,    ,      ,    ,      ,1, 1.0000
  4132,'G ',  1854.899,    56.518,  1473.000, -1473.000,1.09600,  4102,  2170.000, 0.00000E+0, 2.00000E-1, 0.00000E+0, 0.00000E+0,1.00000,1,  100.0,  2170.000,     0.000,   1,1.0000
  4132,'H ',  3835.801,   116.875,  2847.000, -2847.000,1.09600,  4102,  5539.000, 0.00000E+0, 2.00000E-1, 0.00000E+0, 0.00000E+0,1.00000,1,  100.0,  5539.000,     0.000,   1,1.0000
  4132,'N ',   900.000,    27.423,   231.000,  -231.000,1.09600,  4102,  1200.000, 0.00000E+0, 2.00000E-1, 0.00000E+0, 0.00000E+0,1.00000,1,  100.0,  1200.000,     0.000,   1,1.0000
  4132,'W ',   270.000,     8.227,   160.000,  -160.000,1.09600,  4102,   400.000, 0.00000E+0, 2.00000E-1, 0.00000E+0, 0.00000E+0,1.00000,1,  100.0,   300.000,     0.000,   1,1.0000,    ,      ,    ,      ,    ,      ,1, 1.0000
  4231,'C ',   999.000,   357.322,   728.000,  -728.000,1.12000,  4201,  1460.000, 0.00000E+0, 2.00000E-1, 0.00000E+0, 0.00000E+0,1.00000,1,  100.0,  1460.000,     0.000,   1,1.0000
  4231,'G ',   664.200,   237.571,   659.000,  -659.000,1.12000,  4201,   970.000, 0.00000E+0, 2.00000E-1, 0.00000E+0, 0.00000E+0,1.00000,1,  100.0,   970.000,     0.000,   1,1.0000
  4231,'H ',  2406.601,   860.791,  1808.000, -1808.000,1.12000,  4201,  3517.000, 0.00000E+0, 2.00000E-1, 0.00000E+0, 0.00000E+0,1.00000,1,  100.0,  3517.000,     0.000,   1,1.0000
  4232,'G ',   348.300,    -4.251,   592.000,  -592.000,1.06000,  4202,   872.000, 0.00000E+0, 2.00000E-1, 0.00000E+0, 0.00000E+0,1.00000,1,  100.0,   872.000,     0.000,   1,1.0000
  4232,'H ',   222.300,    -2.713,   287.000,  -287.000,1.06000,  4202,   558.000, 0.00000E+0, 2.00000E-1, 0.00000E+0, 0.00000E+0,1.00000,1,  100.0,   558.000,     0.000,   1,1.0000
  4232,'W ',   316.800,    -3.866,   108.000,  -108.000,1.06000,  4202,   695.000, 0.00000E+0, 2.00000E-1, 0.00000E+0, 0.00000E+0,1.00000,1,  100.0,   695.000,     0.000,   1,1.0000,    ,      ,    ,      ,    ,      ,1, 1.0000
  5031,'G ',   821.700,   129.179,   605.000,  -605.000,1.05000,  5001,  2650.000, 0.00000E+0, 2.00000E-1, 0.00000E+0, 0.00000E+0,1.00000,1,  100.0,  2650.000,     0.000,   1,1.0000
  5031,'H ',  5976.000,   939.485,  4399.000, -4399.000,1.05000,  5001, 10747.000, 0.00000E+0, 2.00000E-1, 0.00000E+0, 0.00000E+0,1.00000,1,  100.0, 10747.000,     0.000,   1,1.0000
  5032,'C ',  3646.800,   600.920,  2977.000, -2977.000,1.05500,  5002, 13039.000, 0.00000E+0, 2.00000E-1, 0.00000E+0, 0.00000E+0,1.00000,1,  100.0, 13039.000,     0.000,   1,1.0000
  5032,'G ',  2695.500,   444.164,  2200.000, -2200.000,1.05500,  5002,  9636.000, 0.00000E+0, 2.00000E-1, 0.00000E+0, 0.00000E+0,1.00000,1,  100.0,  9636.000,     0.000,   1,1.0000
  5032,'R ',    66.600,    10.974,    54.000,   -54.000,1.05500,  5002,   108.000, 0.00000E+0, 2.00000E-1, 0.00000E+0, 0.00000E+0,1.00000,1,  100.0,   108.000,     0.000,   1,1.0000
  5032,'S ',  2701.800,   445.203,  2205.000, -2205.000,1.05500,  5002,  4410.200, 0.00000E+0, 2.00000E-1, 0.00000E+0, 0.00000E+0,1.00000,1,  100.0,  4410.200,     0.000,   1,1.0000,    ,      ,    ,      ,    ,      ,1, 1.0000
  5032,'W ',   331.200,    54.575,   271.000,  -271.000,1.05500,  5002,   541.000, 0.00000E+0, 2.00000E-1, 0.00000E+0, 0.00000E+0,1.00000,1,  100.0,   541.000,     0.000,   1,1.0000,    ,      ,    ,      ,    ,      ,1, 1.0000
  6132,'B ',    45.000,   -11.453,    20.000,   -20.000,1.03000,  6102,   122.000, 0.00000E+0, 2.00000E-1, 0.00000E+0, 0.00000E+0,1.00000,1,  100.0,   122.000,     0.000,   1,1.0000
  6132,'G ',  1043.100,  -147.000,   147.000,  -147.000,1.03000,  6102,  1272.000, 0.00000E+0, 2.00000E-1, 0.00000E+0, 0.00000E+0,1.00000,1,  100.0,  1272.000,     0.000,   1,1.0000
  6132,'H ',  1992.599,  -507.133,  1072.000, -1072.000,1.03000,  6102,  2541.000, 0.00000E+0, 2.00000E-1, 0.00000E+0, 0.00000E+0,1.00000,1,  100.0,  2541.000,     0.000,   1,1.0000
  6132,'S ',   180.000,   -45.812,    75.000,   -75.000,1.03000,  6102,   395.000, 0.00000E+0, 2.00000E-1, 0.00000E+0, 0.00000E+0,1.00000,1,  100.0,   395.000,     0.000,   1,1.0000,    ,      ,    ,      ,    ,      ,1, 1.0000
  6132,'W ',   503.100,  -128.043,   210.000,  -210.000,1.03000,  6102,   973.000, 0.00000E+0, 2.00000E-1, 0.00000E+0, 0.00000E+0,1.00000,1,  100.0,   973.000,     0.000,   1,1.0000,    ,      ,    ,      ,    ,      ,1, 1.0000
  6231,'C ',   705.150,  -131.975,  1256.000, -1256.000,1.06000,  6201,  2488.000, 0.00000E+0, 2.00000E-1, 0.00000E+0, 0.00000E+0,1.00000,1,  100.0,  2488.000,     0.000,   1,1.0000
  6231,'G ',   225.000,   -42.111,    70.000,   -70.000,1.06000,  6201,   250.000, 0.00000E+0, 2.00000E-1, 0.00000E+0, 0.00000E+0,1.00000,1,  100.0,   250.000,     0.000,   1,1.0000
  6235,'G ',    90.000,     9.522,    64.000,   -64.000,1.05000,  6205,   226.000, 0.00000E+0, 2.00000E-1, 0.00000E+0, 0.00000E+0,1.00000,1,  100.0,   226.000,     0.000,   1,1.0000
  6235,'H ',  1040.400,   110.073,   347.000,  -347.000,1.05000,  6205,  2671.000, 0.00000E+0, 2.00000E-1, 0.00000E+0, 0.00000E+0,1.00000,1,  100.0,  2671.000,     0.000,   1,1.0000
  6235,'W ',   280.800,    29.708,   195.000,  -195.000,1.05000,  6205,   720.000, 0.00000E+0, 2.00000E-1, 0.00000E+0, 0.00000E+0,1.00000,1,  100.0,   720.000,     0.000,   1,1.0000,    ,      ,    ,      ,    ,      ,1, 1.0000
  6333,'C ',  2837.700,   499.304,  1671.000, -1671.000,1.03000,  6303,  4594.000, 0.00000E+0, 2.00000E-1, 0.00000E+0, 0.00000E+0,1.00000,1,  100.0,  4594.000,     0.000,   1,1.0000
  6333,'W ',   919.800,   161.842,   350.000,  -350.000,1.03000,  6303,  1489.000, 0.00000E+0, 2.00000E-1, 0.00000E+0, 0.00000E+0,1.00000,1,  100.0,  1489.000,     0.000,   1,1.0000,    ,      ,    ,      ,    ,      ,1, 1.0000
  6335,'C ',  2274.300,   628.514,   968.000,  -968.000,1.06000,  6305,  3000.000, 0.00000E+0, 2.00000E-1, 0.00000E+0, 0.00000E+0,1.00000,1,  100.0,  2660.000,     0.000,   1,1.0000
  6335,'G ',   295.200,    81.580,   330.000,  -330.000,1.06000,  6305,   418.000, 0.00000E+0, 2.00000E-1, 0.00000E+0, 0.00000E+0,1.00000,1,  100.0,   418.000,     0.000,   1,1.0000
  6335,'H ',   259.200,    71.631,   406.000,  -406.000,1.06000,  6305,   400.000, 0.00000E+0, 2.00000E-1, 0.00000E+0, 0.00000E+0,1.00000,1,  100.0,   303.000,     0.000,   1,1.0000
  6433,'C ',   194.000,    40.746,   283.000,  -283.000,1.11000,  6403,   391.000, 0.00000E+0, 2.00000E-1, 0.00000E+0, 0.00000E+0,1.00000,1,  100.0,   391.000,     0.000,   1,1.0000
  6433,'E ',   372.000,    59.000,    59.000,   -59.000,1.11000,  6403,   751.000, 0.00000E+0, 2.00000E-1, 0.00000E+0, 0.00000E+0,1.00000,1,  100.0,   751.000,     0.000,   1,1.0000
  6433,'G ',   679.000,   142.612,   536.000,  -536.000,1.11000,  6403,  1369.000, 0.00000E+0, 2.00000E-1, 0.00000E+0, 0.00000E+0,1.00000,1,  100.0,  1369.000,     0.000,   1,1.0000
  6433,'W ',    75.000,    15.752,    50.000,   -50.000,1.11000,  6403,   152.000, 0.00000E+0, 2.00000E-1, 0.00000E+0, 0.00000E+0,1.00000,1,  100.0,   152.000,     0.000,   1,1.0000,    ,      ,    ,      ,    ,      ,1, 1.0000
  6533,'C ',  1318.501,   130.537,  1924.000, -1924.000,1.06500,  6503,  3276.000, 0.00000E+0, 2.00000E-1, 0.00000E+0, 0.00000E+0,1.00000,1,  100.0,  3276.000,     0.000,   1,1.0000
  6533,'G ',  1213.201,   120.112,   880.000,  -880.000,1.06500,  6503,  3239.000, 0.00000E+0, 2.00000E-1, 0.00000E+0, 0.00000E+0,1.00000,1,  100.0,  3239.000,     0.000,   1,1.0000
  6533,'H ',    90.000,     8.910,    75.000,   -75.000,1.06500,  6503,   275.000, 0.00000E+0, 2.00000E-1, 0.00000E+0, 0.00000E+0,1.00000,1,  100.0,   275.000,     0.000,   1,1.0000
  6533,'S ',   566.100,    56.046,   500.000,  -500.000,1.06500,  6503,  1407.000, 0.00000E+0, 2.00000E-1, 0.00000E+0, 0.00000E+0,1.00000,1,  100.0,  1407.000,     0.000,   1,1.0000,    ,      ,    ,      ,    ,      ,1, 1.0000
  6533,'W ',   157.500,    15.593,    20.000,   -20.000,1.06500,  6503,   391.000, 0.00000E+0, 2.00000E-1, 0.00000E+0, 0.00000E+0,1.00000,1,  100.0,   391.000,     0.000,   1,1.0000,    ,      ,    ,      ,    ,      ,1, 1.0000
  7031,'C ',  1105.199,   318.506,  1419.000, -1419.000,1.02000,  7001,  3127.000, 0.00000E+0, 2.00000E-1, 0.00000E+0, 0.00000E+0,1.00000,1,  100.0,  3127.000,     0.000,   1,1.0000
  7031,'G ',  2242.802,   646.351,  2092.000, -2092.000,1.02000,  7001,  6346.000, 0.00000E+0, 2.00000E-1, 0.00000E+0, 0.00000E+0,1.00000,1,  100.0,  6346.000,     0.000,   1,1.0000
  7031,'P ',   123.300,    35.534,   175.000,  -175.000,1.02000,  7001,   509.000, 0.00000E+0, 2.00000E-1, 0.00000E+0, 0.00000E+0,1.00000,1,  100.0,   509.000,  -509.000,   1,1.0000
  7031,'SC',     0.000,     0.000,  1000.000, -1000.000,1.02000,  7001,   100.000, 0.00000E+0, 2.00000E-1, 0.00000E+0, 0.00000E+0,1.00000,0,  100.0,     0.100,     0.000,   1,1.0000
  7031,'W ',  1098.000,   316.432,  1000.000, -1000.000,1.02000,  7001,  3106.000, 0.00000E+0, 2.00000E-1, 0.00000E+0, 0.00000E+0,1.00000,1,  100.0,  3106.000,     0.000,   1,1.0000,    ,      ,    ,      ,    ,      ,1, 1.0000
  7032,'C ',  1057.500,    34.008,   826.000,  -826.000,1.01500,  7002,  1821.000, 0.00000E+0, 2.00000E-1, 0.00000E+0, 0.00000E+0,1.00000,1,  100.0,  1821.000,     0.000,   1,1.0000
  7032,'G ',   861.300,    27.698,   489.000,  -489.000,1.01500,  7002,  1483.000, 0.00000E+0, 2.00000E-1, 0.00000E+0, 0.00000E+0,1.00000,1,  100.0,  1483.000,     0.000,   1,1.0000
  7032,'H ',   390.600,    12.561,   346.000,  -346.000,1.01500,  7002,   672.000, 0.00000E+0, 2.00000E-1, 0.00000E+0, 0.00000E+0,1.00000,1,  100.0,   672.000,     0.000,   1,1.0000
  7032,'S ',   428.400,    13.777,   230.000,  -230.000,1.01500,  7002,   738.000, 0.00000E+0, 2.00000E-1, 0.00000E+0, 0.00000E+0,1.00000,1,  100.0,   738.000,     0.000,   1,1.0000,    ,      ,    ,      ,    ,      ,1, 1.0000
  8033,'H ',  1182.000,   259.731,   786.000,  -786.000,1.07500,  8003,  1394.000, 0.00000E+0, 2.00000E-1, 0.00000E+0, 0.00000E+0,1.00000,1,  100.0,  1394.000,     0.000,   1,1.0000
  8034,'G ',  2946.000,   418.131,  1280.000, -1280.000,1.00000,  8004,  3754.000, 0.00000E+0, 2.00000E-1, 0.00000E+0, 0.00000E+0,1.00000,1,  100.0,  3754.000,     0.000,   1,1.0000
  8034,'H ',   427.000,    60.605,   344.000,  -344.000,1.00000,  8004,   544.000, 0.00000E+0, 2.00000E-1, 0.00000E+0, 0.00000E+0,1.00000,1,  100.0,   544.000,     0.000,   1,1.0000
 0 /End of Generator data, Begin Branch data
  1001,   1201,'1 ', 1.77000E-3, 3.16900E-2,   3.34460,    0.00,    0.00,    0.00,  0.00000,  0.00000,  0.00000,  0.00000,1,1,   0.00,   1,1.0000
  1001,   1202,'9 ', 1.08000E-2, 9.65000E-2,   0.32960,    0.00,    0.00,    0.00,  0.00000,  0.00000,  0.00000,  0.00000,1,1,   0.00,   1,1.0000
  1002,   1004,'1 ', 5.00000E-4, 5.30000E-3,   0.08820,    0.00,    0.00,    0.00,  0.00000,  0.00000,  0.00000,  0.00000,1,1,   0.00,   1,1.0000
  1002,   1102,'1 ', 1.79000E-3, 1.98800E-2,   2.57600,    0.00,    0.00,    0.00,  0.00000,  0.00000,  0.00000,  0.00000,1,1,   0.00,   1,1.0000
  1002,   1102,'2 ', 1.79000E-3, 1.98800E-2,   2.57600,    0.00,    0.00,    0.00,  0.00000,  0.00000,  0.00000,  0.00000,1,1,   0.00,   1,1.0000
  1002,   6506,'1 ', 4.80000E-3, 4.36000E-2,   0.70780,    0.00,    0.00,    0.00,  0.00000,  0.00000,  0.00000,  0.00000,1,2,   0.00,   1,1.0000
  1004,   7001,'1 ', 8.11000E-3, 1.36900E-1,   2.43480,    0.00,    0.00,    0.00,  0.00000,  0.00000,  0.00000,  0.00000,1,2,   0.00,   1,1.0000
  1004,   7002,'1 ', 9.77000E-3, 1.10000E-1,   2.00000,    0.00,    0.00,    0.00,  0.00000,  0.00000,  0.00000,  0.00000,1,2,   0.00,   1,1.0000
  1101,   1401,'1 ', 2.80000E-3, 2.11000E-2,   1.01940,    0.00,    0.00, 1630.00,  0.00000,  0.00000,  0.00000,  0.00000,1,1,   0.00,   1,1.0000
  1101,   1401,'2 ', 2.80000E-3, 2.11000E-2,   1.01940,    0.00,    0.00, 1630.00,  0.00000,  0.00000,  0.00000,  0.00000,1,1,   0.00,   1,1.0000
  1201,   1202,'1 ', 7.70000E-4, 5.36000E-3,   1.39842,    0.00,    0.00,    0.00,  0.00000,  0.00000,  0.00000,  0.00000,1,1,   0.00,   1,1.0000
  1201,   1402,'1 ', 1.79000E-3, 2.59200E-2,   3.39220,    0.00,    0.00,    0.00,  0.00000,  0.00000,  0.00000,  0.00000,1,1,   0.00,   1,1.0000
  1201,   2901,'1 ', 2.07000E-3, 1.36900E-2,   3.95160,    0.00,    0.00,    0.00,  0.00000,  0.00000,  0.00000,  0.00000,1,1,   0.00,   1,1.0000
  1202,   1302,'1 ', 2.80000E-3, 2.11000E-2,   1.01940,    0.00,    0.00, 1630.00,  0.00000,  0.00000,  0.00000,  0.00000,1,1,   0.00,   1,1.0000
  1202,   1402,'1 ', 2.41000E-3, 3.48900E-2,   4.86560,    0.00,    0.00,    0.00,  0.00000,  0.00000,  0.00000,  0.00000,1,1,   0.00,   1,1.0000
  1301,   1302,'1 ', 2.80000E-3, 2.11000E-2,   1.01940,    0.00,    0.00, 1630.00,  0.00000,  0.00000,  0.00000,  0.00000,1,1,   0.00,   1,1.0000
  1301,   1402,'1 ', 2.80000E-3, 2.11000E-2,   1.01940,    0.00,    0.00, 1630.00,  0.00000,  0.00000,  0.00000,  0.00000,1,1,   0.00,   1,1.0000
  1301,   1402,'2 ', 6.20000E-3, 6.73000E-2,   1.11560,    0.00,    0.00,    0.00,  0.00000,  0.00000,  0.00000,  0.00000,1,1,   0.00,   1,1.0000
  1301,   2603,'1 ', 1.79000E-3, 2.52400E-2,   0.53546,    0.00,    0.00,    0.00,  0.00000,  0.00000,  0.00000,  0.00000,1,2,   0.00,   1,1.0000
  1301,   2901,'1 ', 1.08000E-2, 9.65000E-2,   0.32960,    0.00,    0.00,    0.00,  0.00000,  0.00000,  0.00000,  0.00000,1,1,   0.00,   1,1.0000
  1303,   6507,'1 ', 8.11000E-3, 1.36900E-1,   1.11560,    0.00,    0.00,    0.00,  0.00000,  0.00000,  0.00000,  0.00000,1,2,   0.00,   1,1.0000
  1401,   1402,'1 ', 4.00000E-4, 9.60000E-3,   0.90380,    0.00,    0.00,    0.00,  0.00000,  0.00000,  0.00000,  0.00000,1,1,   0.00,   1,1.0000
  1401,   1402,'2 ', 4.00000E-4, 9.60000E-3,   0.90380,    0.00,    0.00,    0.00,  0.00000,  0.00000,  0.00000,  0.00000,1,1,   0.00,   1,1.0000
  1401,   2301,'1 ', 2.59000E-3, 2.96700E-2,   2.15300,    0.00,    0.00, 1800.00,  0.00000,  0.00000,  0.00000,  0.00000,1,1,   0.00,   1,1.0000
  1401,   2400,'1 ', 2.59000E-3, 2.96700E-2,   2.15300,    0.00,    0.00, 1800.00,  0.00000,  0.00000,  0.00000,  0.00000,1,1,   0.00,   1,1.0000
  1403,   2100,'1 ', 8.45000E-3, 7.03400E-2,   0.15954,    0.00,    0.00, 1160.00,  0.00000,  0.00000,  0.00000,  0.00000,1,1,   0.00,   1,1.0000
...